!- Linux Line endings 

Version,
    23.1;                     !- Version Identifier

SimulationControl,
    No,                       !- Do Zone Sizing Calculation
    No,                       !- Do System Sizing Calculation
    No,                       !- Do Plant Sizing Calculation
    No,                       !- Run Simulation for Sizing Periods
    Yes,                      !- Run Simulation for Weather File Run Periods
    No,                       !- Do HVAC Sizing Simulation for Sizing Periods
    1;                        !- Maximum Number of HVAC Sizing Simulation Passes

Building,
    SingleFamilyHouse,        !- Name
    0,                        !- North Axis
    Country,                  !- Terrain
    0.04,                     !- Loads Convergence Tolerance Value
    0.004,                    !- Temperature Convergence Tolerance Value
    FullExterior,             !- Solar Distribution
    25,                       !- Maximum Number of Warmup Days
    6;                        !- Minimum Number of Warmup Days

ShadowCalculation,
    PolygonClipping,          !- Shading Calculation Method
    Periodic,                 !- Shading Calculation Update Frequency Method
    20,                       !- Shading Calculation Update Frequency
    15000,                    !- Maximum Figures in Shadow Overlap Calculations
    SutherlandHodgman;        !- Polygon Clipping Algorithm

SurfaceConvectionAlgorithm:Inside,
    TARP;                     !- Algorithm

SurfaceConvectionAlgorithm:Outside,
    DOE-2;                    !- Algorithm

HeatBalanceAlgorithm,
    ConductionTransferFunction,    !- Algorithm
    200;                      !- Surface Temperature Upper Limit

ZoneAirHeatBalanceAlgorithm,
    ThirdOrderBackwardDifference,    !- Algorithm
    No;                       !- Do Space Heat Balance for Sizing

ZoneAirContaminantBalance,
    No;                       !- Carbon Dioxide Concentration

ZoneCapacitanceMultiplier:ResearchSpecial,
    Zone Capacitance Multiplier Research Special,    !- Name
    ,                         !- Zone or ZoneList Name
    ,                         !- Temperature Capacity Multiplier
    ,                         !- Humidity Capacity Multiplier
    ,                         !- Carbon Dioxide Capacity Multiplier
    ;                         !- Generic Contaminant Capacity Multiplier

Timestep,
    6;                        !- Number of Timesteps per Hour

ConvergenceLimits,
    1;                        !- Minimum System Timestep

Site:Location,
    Bousson,                  !- Name
    44.9339,                  !- Latitude
    6.8222,                   !- Longitude
    1,                        !- Time Zone
    1401;                     !- Elevation

RunPeriod,
    TMY,                      !- Name
    1,                        !- Begin Month
    1,                        !- Begin Day of Month
    ,                         !- Begin Year
    12,                       !- End Month
    31,                       !- End Day of Month
    ,                         !- End Year
    Monday,                   !- Day of Week for Start Day
    No,                       !- Use Weather File Holidays and Special Days
    No,                       !- Use Weather File Daylight Saving Period
    No,                       !- Apply Weekend Holiday Rule
    Yes,                      !- Use Weather File Rain Indicators
    Yes;                      !- Use Weather File Snow Indicators

Site:GroundTemperature:BuildingSurface,
    18.89,                    !- January Ground Temperature
    18.92,                    !- February Ground Temperature
    19.02,                    !- March Ground Temperature
    19.12,                    !- April Ground Temperature
    19.21,                    !- May Ground Temperature
    19.23,                    !- June Ground Temperature
    19.07,                    !- July Ground Temperature
    19.32,                    !- August Ground Temperature
    19.09,                    !- September Ground Temperature
    19.21,                    !- October Ground Temperature
    19.13,                    !- November Ground Temperature
    18.96;                    !- December Ground Temperature

ScheduleTypeLimits,
    Zn001 Thermostat Schedule Type Limits,    !- Name
    0,                        !- Lower Limit Value
    4,                        !- Upper Limit Value
    DISCRETE;                 !- Numeric Type

ScheduleTypeLimits,
    Temperature,              !- Name
    0,                        !- Lower Limit Value
    100,                      !- Upper Limit Value
    Continuous,               !- Numeric Type
    temperature;              !- Unit Type

ScheduleTypeLimits,
    ActivityLevel,            !- Name
    0,                        !- Lower Limit Value
    150,                      !- Upper Limit Value
    Continuous,               !- Numeric Type
    activitylevel;            !- Unit Type

ScheduleTypeLimits,
    Fractional,               !- Name
    0,                        !- Lower Limit Value
    1,                        !- Upper Limit Value
    Continuous;               !- Numeric Type

Schedule:Compact,
    Zone Control Type Sched,    !- Name
    Control Type,             !- Schedule Type Limits Name
    Through: 12/31,           !- Field 1
    For: AllDays,             !- Field 2
    Until: 24:00,             !- Field 3
    1;                        !- Field 4

Schedule:Compact,
    Heating Setpoints,        !- Name
    Temperature,              !- Schedule Type Limits Name
    Through: 12/31,           !- Field 1
    For: AllDays,             !- Field 2
    Until: 24:00,             !- Field 3
    20.;                      !- Field 4

MATERIAL,
    gypsumplaster_UNI10456,    !- Name
    MediumSmooth,             !- Roughness
    0.015,                    !- Thickness
    0.8,                      !- Conductivity
    1600,                     !- Density
    1000,                     !- Specific Heat
    0.9,                      !- Thermal Absorptance
    0.7,                      !- Solar Absorptance
    0.7;                      !- Visible Absorptance

MATERIAL,
    internal_brickwork_UNI10351,    !- Name
    Rough,                    !- Roughness
    0.12,                     !- Thickness
    0.5,                      !- Conductivity
    1400,                     !- Density
    1000,                     !- Specific Heat
    0.9,                      !- Thermal Absorptance
    0.7,                      !- Solar Absorptance
    0.7;                      !- Visible Absorptance

MATERIAL,
    Brick blocks,             !- Name
    MediumRough,              !- Roughness
    0.3,                      !- Thickness
    0.3371,                   !- Conductivity
    1000,                     !- Density
    1000,                     !- Specific Heat
    0.9,                      !- Thermal Absorptance
    0.7,                      !- Solar Absorptance
    0.7;                      !- Visible Absorptance

MATERIAL,
    Cement mortar (2cm),      !- Name
    MediumSmooth,             !- Roughness
    0.02,                     !- Thickness
    1.4,                      !- Conductivity
    2000,                     !- Density
    670,                      !- Specific Heat
    0.9,                      !- Thermal Absorptance
    0.7,                      !- Solar Absorptance
    0.7;                      !- Visible Absorptance

MATERIAL,
    External plaster,         !- Name
    MediumSmooth,             !- Roughness
    0.02,                     !- Thickness
    0.9,                      !- Conductivity
    1800,                     !- Density
    1000,                     !- Specific Heat
    0.9,                      !- Thermal Absorptance
    0.7,                      !- Solar Absorptance
    0.7;                      !- Visible Absorptance

MATERIAL,
    Hollowcore slab,          !- Name
    MediumRough,              !- Roughness
    0.16,                     !- Thickness
    0.64,                     !- Conductivity
    600,                      !- Density
    1000,                     !- Specific Heat
    0.9,                      !- Thermal Absorptance
    0.7,                      !- Solar Absorptance
    0.7;                      !- Visible Absorptance

MATERIAL,
    Indoor flooring (stoneware),    !- Name
    MediumSmooth,             !- Roughness
    0.015,                    !- Thickness
    1.47,                     !- Conductivity
    1700,                     !- Density
    1000,                     !- Specific Heat
    0.9,                      !- Thermal Absorptance
    0.7,                      !- Solar Absorptance
    0.7;                      !- Visible Absorptance

MATERIAL,
    Internal plaster,         !- Name
    MediumSmooth,             !- Roughness
    0.02,                     !- Thickness
    0.7,                      !- Conductivity
    1400,                     !- Density
    1000,                     !- Specific Heat
    0.9,                      !- Thermal Absorptance
    0.7,                      !- Solar Absorptance
    0.7;                      !- Visible Absorptance

MATERIAL,
    Roof tiles,               !- Name
    MediumSmooth,             !- Roughness
    0.02,                     !- Thickness
    0.99,                     !- Conductivity
    2000,                     !- Density
    840,                      !- Specific Heat
    0.9,                      !- Thermal Absorptance
    0.7,                      !- Solar Absorptance
    0.7;                      !- Visible Absorptance

MATERIAL,
    Wood planking,            !- Name
    MediumSmooth,             !- Roughness
    0.03,                     !- Thickness
    0.15,                     !- Conductivity
    550,                      !- Density
    1600,                     !- Specific Heat
    0.9,                      !- Thermal Absorptance
    0.7,                      !- Solar Absorptance
    0.7;                      !- Visible Absorptance

MATERIAL:AIRGAP,
    airgap_4cm_UNI6946,       !- Name
    0.16;                     !- Thermal Resistance

WindowMaterial:SimpleGlazingSystem,
    window_simple,            !- Name
    2.1,                      !- UFactor
    0.7;                      !- Solar Heat Gain Coefficient

WindowMaterial:Shade,
    shade,                    !- Name
    0.35,                     !- Solar Transmittance
    0.5,                      !- Solar Reflectance
    0.35,                     !- Visible Transmittance
    0.5,                      !- Visible Reflectance
    0.9,                      !- Infrared Hemispherical Emissivity
    0.05,                     !- Infrared Transmittance
    0.005,                    !- Thickness
    0.1,                      !- Conductivity
    0.05,                     !- Shade to Glass Distance
    0,                        !- Top Opening Multiplier
    0,                        !- Bottom Opening Multiplier
    0,                        !- LeftSide Opening Multiplier
    0,                        !- RightSide Opening Multiplier
    0;                        !- Airflow Permeability

Construction,
    window_simple,            !- Name
    window_simple;            !- Outside Layer

CONSTRUCTION,
    floor_ground,             !- Name
    External plaster,         !- Outside Layer
    Hollowcore slab,          !- Layer 2
    Cement mortar (2cm),      !- Layer 3
    Indoor flooring (stoneware);    !- Layer 4

CONSTRUCTION,
    roof_external,            !- Name
    Roof tiles,               !- Outside Layer
    airgap_4cm_UNI6946,       !- Layer 2
    Wood planking;            !- Layer 3

CONSTRUCTION,
    wall_external,            !- Name
    External plaster,         !- Outside Layer
    Brick blocks,             !- Layer 2
    Internal plaster;         !- Layer 3

CONSTRUCTION,
    wall_internal,            !- Name
    gypsumplaster_UNI10456,    !- Outside Layer
    internal_brickwork_UNI10351,    !- Layer 2
    gypsumplaster_UNI10456;    !- Layer 3

GlobalGeometryRules,
    UpperLeftCorner,          !- Starting Vertex Position
    Counterclockwise,         !- Vertex Entry Direction
    Relative,                 !- Coordinate System
    Relative,                 !- Daylighting Reference Point Coordinate System
    Relative;                 !- Rectangular Surface Coordinate System

Zone,
    Zn001,                    !- Name
    0,                        !- Direction of Relative North
    0,                        !- X Origin
    0,                        !- Y Origin
    0,                        !- Z Origin
    ,                         !- Type
    ,                         !- Multiplier
    autocalculate,            !- Ceiling Height
    autocalculate;            !- Volume

BUILDINGSURFACE:DETAILED,
    floor,                    !- Name
    Floor,                    !- Surface Type
    floor_ground,             !- Construction Name
    Zn001,                    !- Zone Name
    ,                         !- Space Name
    Ground,                   !- Outside Boundary Condition
    ,                         !- Outside Boundary Condition Object
    NoSun,                    !- Sun Exposure
    NoWind,                   !- Wind Exposure
    ,                         !- View Factor to Ground
    4,                        !- Number of Vertices
    391035.6730884,           !- Vertex 1 Xcoordinate
    5032408.9241704,          !- Vertex 1 Ycoordinate
    0,                        !- Vertex 1 Zcoordinate
    391015.3310130,           !- Vertex 2 Xcoordinate
    5032379.5608450,          !- Vertex 2 Ycoordinate
    0,                        !- Vertex 2 Zcoordinate
    391005.7103794,           !- Vertex 3 Xcoordinate
    5032388.7401256,          !- Vertex 3 Ycoordinate
    0,                        !- Vertex 3 Zcoordinate
    391026.5751848,           !- Vertex 4 Xcoordinate
    5032415.7606584,          !- Vertex 4 Ycoordinate
    0;                        !- Vertex 4 Zcoordinate

BUILDINGSURFACE:DETAILED,
    roof,                     !- Name
    Roof,                     !- Surface Type
    roof_external,            !- Construction Name
    Zn001,                    !- Zone Name
    ,                         !- Space Name
    Outdoors,                 !- Outside Boundary Condition
    ,                         !- Outside Boundary Condition Object
    SunExposed,               !- Sun Exposure
    WindExposed,              !- Wind Exposure
    ,                         !- View Factor to Ground
    4,                        !- Number of Vertices
    391026.5751848,           !- Vertex 1 Xcoordinate
    5032415.7606584,          !- Vertex 1 Ycoordinate
    6.0000000,                !- Vertex 1 Zcoordinate
    391005.7103794,           !- Vertex 2 Xcoordinate
    5032388.7401256,          !- Vertex 2 Ycoordinate
    6.0000000,                !- Vertex 2 Zcoordinate
    391015.3310130,           !- Vertex 3 Xcoordinate
    5032379.5608450,          !- Vertex 3 Ycoordinate
    6.0000000,                !- Vertex 3 Zcoordinate
    391035.6730884,           !- Vertex 4 Xcoordinate
    5032408.9241704,          !- Vertex 4 Ycoordinate
    6.0000000;                !- Vertex 4 Zcoordinate

BUILDINGSURFACE:DETAILED,
    wall0,                    !- Name
    Wall,                     !- Surface Type
    wall_external,            !- Construction Name
    Zn001,                    !- Zone Name
    ,                         !- Space Name
    Outdoors,                 !- Outside Boundary Condition
    ,                         !- Outside Boundary Condition Object
    SunExposed,               !- Sun Exposure
    WindExposed,              !- Wind Exposure
    ,                         !- View Factor to Ground
    4,                        !- Number of Vertices
    391035.6730884,           !- Vertex 1 Xcoordinate
    5032408.9241704,          !- Vertex 1 Ycoordinate
    6.0000000,                !- Vertex 1 Zcoordinate
    391015.3310130,           !- Vertex 2 Xcoordinate
    5032379.5608450,          !- Vertex 2 Ycoordinate
    6.0000000,                !- Vertex 2 Zcoordinate
    391015.3310130,           !- Vertex 3 Xcoordinate
    5032379.5608450,          !- Vertex 3 Ycoordinate
    0.0,                      !- Vertex 3 Zcoordinate
    391035.6730884,           !- Vertex 4 Xcoordinate
    5032408.9241704,          !- Vertex 4 Ycoordinate
    0.0;                      !- Vertex 4 Zcoordinate

BUILDINGSURFACE:DETAILED,
    wall1,                    !- Name
    Wall,                     !- Surface Type
    wall_external,            !- Construction Name
    Zn001,                    !- Zone Name
    ,                         !- Space Name
    Outdoors,                 !- Outside Boundary Condition
    ,                         !- Outside Boundary Condition Object
    SunExposed,               !- Sun Exposure
    WindExposed,              !- Wind Exposure
    ,                         !- View Factor to Ground
    4,                        !- Number of Vertices
    391015.3310130,           !- Vertex 1 Xcoordinate
    5032379.5608450,          !- Vertex 1 Ycoordinate
    6.0000000,                !- Vertex 1 Zcoordinate
    391005.7103794,           !- Vertex 2 Xcoordinate
    5032388.7401256,          !- Vertex 2 Ycoordinate
    6.0000000,                !- Vertex 2 Zcoordinate
    391005.7103794,           !- Vertex 3 Xcoordinate
    5032388.7401256,          !- Vertex 3 Ycoordinate
    0.0,                      !- Vertex 3 Zcoordinate
    391015.3310130,           !- Vertex 4 Xcoordinate
    5032379.5608450,          !- Vertex 4 Ycoordinate
    0.0;                      !- Vertex 4 Zcoordinate

BUILDINGSURFACE:DETAILED,
    wall2,                    !- Name
    Wall,                     !- Surface Type
    wall_external,            !- Construction Name
    Zn001,                    !- Zone Name
    ,                         !- Space Name
    Outdoors,                 !- Outside Boundary Condition
    ,                         !- Outside Boundary Condition Object
    SunExposed,               !- Sun Exposure
    WindExposed,              !- Wind Exposure
    ,                         !- View Factor to Ground
    4,                        !- Number of Vertices
    391005.7103794,           !- Vertex 1 Xcoordinate
    5032388.7401256,          !- Vertex 1 Ycoordinate
    6.0000000,                !- Vertex 1 Zcoordinate
    391026.5751848,           !- Vertex 2 Xcoordinate
    5032415.7606584,          !- Vertex 2 Ycoordinate
    6.0000000,                !- Vertex 2 Zcoordinate
    391026.5751848,           !- Vertex 3 Xcoordinate
    5032415.7606584,          !- Vertex 3 Ycoordinate
    0.0,                      !- Vertex 3 Zcoordinate
    391005.7103794,           !- Vertex 4 Xcoordinate
    5032388.7401256,          !- Vertex 4 Ycoordinate
    0.0;                      !- Vertex 4 Zcoordinate

BUILDINGSURFACE:DETAILED,
    wall3,                    !- Name
    Wall,                     !- Surface Type
    wall_external,            !- Construction Name
    Zn001,                    !- Zone Name
    ,                         !- Space Name
    Outdoors,                 !- Outside Boundary Condition
    ,                         !- Outside Boundary Condition Object
    SunExposed,               !- Sun Exposure
    WindExposed,              !- Wind Exposure
    ,                         !- View Factor to Ground
    4,                        !- Number of Vertices
    391026.5751848,           !- Vertex 1 Xcoordinate
    5032415.7606584,          !- Vertex 1 Ycoordinate
    6.0000000,                !- Vertex 1 Zcoordinate
    391035.6730884,           !- Vertex 2 Xcoordinate
    5032408.9241704,          !- Vertex 2 Ycoordinate
    6.0000000,                !- Vertex 2 Zcoordinate
    391035.6730884,           !- Vertex 3 Xcoordinate
    5032408.9241704,          !- Vertex 3 Ycoordinate
    0.0,                      !- Vertex 3 Zcoordinate
    391026.5751848,           !- Vertex 4 Xcoordinate
    5032415.7606584,          !- Vertex 4 Ycoordinate
    0.0;                      !- Vertex 4 Zcoordinate

FENESTRATIONSURFACE:DETAILED,
    window0,                  !- Name
    Window,                   !- Surface Type
    window_simple,            !- Construction Name
    wall0,                    !- Building Surface Name
    ,                         !- Outside Boundary Condition Object
    ,                         !- View Factor to Ground
    windowFrame,              !- Frame and Divider Name
    ,                         !- Multiplier
    ,                         !- Number of Vertices
    391035.6720713,           !- Vertex 1 Xcoordinate
    5032408.9227022,          !- Vertex 1 Ycoordinate
    5.5000000,                !- Vertex 1 Zcoordinate
    391015.3320301,           !- Vertex 2 Xcoordinate
    5032379.5623132,          !- Vertex 2 Ycoordinate
    5.5000000,                !- Vertex 2 Zcoordinate
    391015.3320301,           !- Vertex 3 Xcoordinate
    5032379.5623132,          !- Vertex 3 Ycoordinate
    4.3000000,                !- Vertex 3 Zcoordinate
    391035.6720713,           !- Vertex 4 Xcoordinate
    5032408.9227022,          !- Vertex 4 Ycoordinate
    4.3000000;                !- Vertex 4 Zcoordinate

FENESTRATIONSURFACE:DETAILED,
    window1,                  !- Name
    Window,                   !- Surface Type
    window_simple,            !- Construction Name
    wall1,                    !- Building Surface Name
    ,                         !- Outside Boundary Condition Object
    ,                         !- View Factor to Ground
    windowFrame,              !- Frame and Divider Name
    ,                         !- Multiplier
    ,                         !- Number of Vertices
    391015.3305319,           !- Vertex 1 Xcoordinate
    5032379.5613040,          !- Vertex 1 Ycoordinate
    5.5000000,                !- Vertex 1 Zcoordinate
    391005.7108604,           !- Vertex 2 Xcoordinate
    5032388.7396666,          !- Vertex 2 Ycoordinate
    5.5000000,                !- Vertex 2 Zcoordinate
    391005.7108604,           !- Vertex 3 Xcoordinate
    5032388.7396666,          !- Vertex 3 Ycoordinate
    4.3000000,                !- Vertex 3 Zcoordinate
    391015.3305319,           !- Vertex 4 Xcoordinate
    5032379.5613040,          !- Vertex 4 Ycoordinate
    4.3000000;                !- Vertex 4 Zcoordinate

FENESTRATIONSURFACE:DETAILED,
    window2,                  !- Name
    Window,                   !- Surface Type
    window_simple,            !- Construction Name
    wall2,                    !- Building Surface Name
    ,                         !- Outside Boundary Condition Object
    ,                         !- View Factor to Ground
    windowFrame,              !- Frame and Divider Name
    ,                         !- Multiplier
    ,                         !- Number of Vertices
    391005.7114226,           !- Vertex 1 Xcoordinate
    5032388.7414766,          !- Vertex 1 Ycoordinate
    5.5000000,                !- Vertex 1 Zcoordinate
    391026.5741415,           !- Vertex 2 Xcoordinate
    5032415.7593073,          !- Vertex 2 Ycoordinate
    5.5000000,                !- Vertex 2 Zcoordinate
    391026.5741415,           !- Vertex 3 Xcoordinate
    5032415.7593073,          !- Vertex 3 Ycoordinate
    4.3000000,                !- Vertex 3 Zcoordinate
    391005.7114226,           !- Vertex 4 Xcoordinate
    5032388.7414766,          !- Vertex 4 Ycoordinate
    4.3000000;                !- Vertex 4 Zcoordinate

FENESTRATIONSURFACE:DETAILED,
    window3,                  !- Name
    Window,                   !- Surface Type
    window_simple,            !- Construction Name
    wall3,                    !- Building Surface Name
    ,                         !- Outside Boundary Condition Object
    ,                         !- View Factor to Ground
    windowFrame,              !- Frame and Divider Name
    ,                         !- Multiplier
    ,                         !- Number of Vertices
    391026.5756397,           !- Vertex 1 Xcoordinate
    5032415.7603165,          !- Vertex 1 Ycoordinate
    5.5000000,                !- Vertex 1 Zcoordinate
    391035.6726335,           !- Vertex 2 Xcoordinate
    5032408.9245122,          !- Vertex 2 Ycoordinate
    5.5000000,                !- Vertex 2 Zcoordinate
    391035.6726335,           !- Vertex 3 Xcoordinate
    5032408.9245122,          !- Vertex 3 Ycoordinate
    4.3000000,                !- Vertex 3 Zcoordinate
    391026.5756397,           !- Vertex 4 Xcoordinate
    5032415.7603165,          !- Vertex 4 Ycoordinate
    4.3000000;                !- Vertex 4 Zcoordinate

WindowShadingControl,
    shadingControl,           !- Name
    Zn001,                    !- Zone Name
    1,                        !- Shading Control Sequence Number
    InteriorShade,            !- Shading Type
    ,                         !- Construction with Shading Name
    OnIfHighSolarOnWindow,    !- Shading Control Type
    ,                         !- Schedule Name
    150,                      !- Setpoint
    No,                       !- Shading Control Is Scheduled
    No,                       !- Glare Control Is Active
    shade,                    !- Shading Device Material Name
    ,                         !- Type of Slat Angle Control for Blinds
    ,                         !- Slat Angle Schedule Name
    ,                         !- Setpoint 2
    ,                         !- Daylighting Control Object Name
    Group,                    !- Multiple Surface Control Type
    window0,                  !- Fenestration Surface 1 Name
    window1,                  !- Fenestration Surface 2 Name
    window2,                  !- Fenestration Surface 3 Name
    window3;                  !- Fenestration Surface 4 Name

WindowProperty:FrameAndDivider,
    windowFrame,              !- Name
    0.02,                     !- Frame Width
    0.01,                     !- Frame Outside Projection
    0.01,                     !- Frame Inside Projection
    2.2,                      !- Frame Conductance
    1,                        !- Ratio of FrameEdge Glass Conductance to CenterOfGlass Conductance
    0.7,                      !- Frame Solar Absorptance
    0.7,                      !- Frame Visible Absorptance
    0.9,                      !- Frame Thermal Hemispherical Emissivity
    DividedLite,              !- Divider Type
    0,                        !- Divider Width
    0,                        !- Number of Horizontal Dividers
    0,                        !- Number of Vertical Dividers
    0,                        !- Divider Outside Projection
    0,                        !- Divider Inside Projection
    0,                        !- Divider Conductance
    1,                        !- Ratio of DividerEdge Glass Conductance to CenterOfGlass Conductance
    0,                        !- Divider Solar Absorptance
    0,                        !- Divider Visible Absorptance
    0.9,                      !- Divider Thermal Hemispherical Emissivity
    0,                        !- Outside Reveal Solar Absorptance
    0,                        !- Inside Sill Depth
    0,                        !- Inside Sill Solar Absorptance
    0,                        !- Inside Reveal Depth
    0,                        !- Inside Reveal Solar Absorptance
    CurtainWall;              !- NFRC Product Type for Assembly Calculations

InternalMass,
    mass_internal_walls,      !- Name
    wall_internal,            !- Construction Name
    Zn001,                    !- Zone or ZoneList Name
    ,                         !- Space or SpaceList Name
    100;                      !- Surface Area

SHADING:BUILDING:DETAILED,
    shading_0,                !- Name
    ,                         !- Transmittance Schedule Name
    autocalculate,            !- Number of Vertices
    391032.0827574,           !- Vertex 1 Xcoordinate
    5032433.8014352,          !- Vertex 1 Ycoordinate
    0.0000000,                !- Vertex 1 Zcoordinate
    391034.6788811,           !- Vertex 2 Xcoordinate
    5032430.1114265,          !- Vertex 2 Ycoordinate
    0.0000000,                !- Vertex 2 Zcoordinate
    391034.6788811,           !- Vertex 3 Xcoordinate
    5032430.1114265,          !- Vertex 3 Ycoordinate
    3.0000000,                !- Vertex 3 Zcoordinate
    391032.0827574,           !- Vertex 4 Xcoordinate
    5032433.8014352,          !- Vertex 4 Ycoordinate
    3.0000000;                !- Vertex 4 Zcoordinate

SHADING:BUILDING:DETAILED,
    shading_1,                !- Name
    ,                         !- Transmittance Schedule Name
    autocalculate,            !- Number of Vertices
    391034.6788811,           !- Vertex 1 Xcoordinate
    5032430.1114265,          !- Vertex 1 Ycoordinate
    0.0000000,                !- Vertex 1 Zcoordinate
    391026.6628021,           !- Vertex 2 Xcoordinate
    5032422.1712699,          !- Vertex 2 Ycoordinate
    0.0000000,                !- Vertex 2 Zcoordinate
    391026.6628021,           !- Vertex 3 Xcoordinate
    5032422.1712699,          !- Vertex 3 Ycoordinate
    3.0000000,                !- Vertex 3 Zcoordinate
    391034.6788811,           !- Vertex 4 Xcoordinate
    5032430.1114265,          !- Vertex 4 Ycoordinate
    3.0000000;                !- Vertex 4 Zcoordinate

SHADING:BUILDING:DETAILED,
    shading_2,                !- Name
    ,                         !- Transmittance Schedule Name
    autocalculate,            !- Number of Vertices
    391026.6628021,           !- Vertex 1 Xcoordinate
    5032422.1712699,          !- Vertex 1 Ycoordinate
    0.0000000,                !- Vertex 1 Zcoordinate
    391022.1076292,           !- Vertex 2 Xcoordinate
    5032426.5842295,          !- Vertex 2 Ycoordinate
    0.0000000,                !- Vertex 2 Zcoordinate
    391022.1076292,           !- Vertex 3 Xcoordinate
    5032426.5842295,          !- Vertex 3 Ycoordinate
    3.0000000,                !- Vertex 3 Zcoordinate