!- Linux Line endings

Version,
    23.1;                     !- Version Identifier

SimulationControl,
    No,                       !- Do Zone Sizing Calculation
    No,                       !- Do System Sizing Calculation
    No,                       !- Do Plant Sizing Calculation
    No,                       !- Run Simulation for Sizing Periods
    Yes,                      !- Run Simulation for Weather File Run Periods
    Yes,                       !- Do HVAC Sizing Simulation for Sizing Periods
    1;                        !- Maximum Number of HVAC Sizing Simulation Passes

Building,
    SingleFamilyHouse,        !- Name
    0,                        !- North Axis
    Country,                  !- Terrain
    0.04,                     !- Loads Convergence Tolerance Value
    0.004,                    !- Temperature Convergence Tolerance Value
    FullExterior,             !- Solar Distribution
    25,                       !- Maximum Number of Warmup Days
    6;                        !- Minimum Number of Warmup Days

ShadowCalculation,
    PolygonClipping,          !- Shading Calculation Method
    Periodic,                 !- Shading Calculation Update Frequency Method
    20,                       !- Shading Calculation Update Frequency
    15000,                    !- Maximum Figures in Shadow Overlap Calculations
    SutherlandHodgman;        !- Polygon Clipping Algorithm

SurfaceConvectionAlgorithm:Inside,
    TARP;                     !- Algorithm

SurfaceConvectionAlgorithm:Outside,
    DOE-2;                    !- Algorithm

HeatBalanceAlgorithm,
    ConductionTransferFunction,    !- Algorithm
    200;                      !- Surface Temperature Upper Limit

ZoneAirHeatBalanceAlgorithm,
    ThirdOrderBackwardDifference,    !- Algorithm
    No;                       !- Do Space Heat Balance for Sizing

ZoneAirContaminantBalance,
    No;                       !- Carbon Dioxide Concentration

ZoneCapacitanceMultiplier:ResearchSpecial,
    Zone Capacitance Multiplier Research Special,    !- Name
    ,                         !- Zone or ZoneList Name
    ,                         !- Temperature Capacity Multiplier
    ,                         !- Humidity Capacity Multiplier
    ,                         !- Carbon Dioxide Capacity Multiplier
    ;                         !- Generic Contaminant Capacity Multiplier

Timestep,
    6;                        !- Number of Timesteps per Hour

ConvergenceLimits,
    1;                        !- Minimum System Timestep

Site:Location,
    Bousson,                  !- Name
    44.9339,                  !- Latitude
    6.8222,                   !- Longitude
    1,                        !- Time Zone
    1401;                     !- Elevation

RunPeriod,
    TMY,                      !- Name
    1,                        !- Begin Month
    1,                        !- Begin Day of Month
    ,                         !- Begin Year
    12,                       !- End Month
    31,                       !- End Day of Month
    ,                         !- End Year
    Monday,                   !- Day of Week for Start Day
    No,                       !- Use Weather File Holidays and Special Days
    No,                       !- Use Weather File Daylight Saving Period
    No,                       !- Apply Weekend Holiday Rule
    Yes,                      !- Use Weather File Rain Indicators
    Yes;                      !- Use Weather File Snow Indicators

Site:GroundTemperature:BuildingSurface,
    18.89,                    !- January Ground Temperature
    18.92,                    !- February Ground Temperature
    19.02,                    !- March Ground Temperature
    19.12,                    !- April Ground Temperature
    19.21,                    !- May Ground Temperature
    19.23,                    !- June Ground Temperature
    19.07,                    !- July Ground Temperature
    19.32,                    !- August Ground Temperature
    19.09,                    !- September Ground Temperature
    19.21,                    !- October Ground Temperature
    19.13,                    !- November Ground Temperature
    18.96;                    !- December Ground Temperature

ScheduleTypeLimits,
    Zn001 Thermostat Schedule Type Limits,    !- Name
    0,                        !- Lower Limit Value
    4,                        !- Upper Limit Value
    DISCRETE;                 !- Numeric Type

ScheduleTypeLimits,
    Temperature,              !- Name
    0,                        !- Lower Limit Value
    100,                      !- Upper Limit Value
    Continuous,               !- Numeric Type
    temperature;              !- Unit Type

ScheduleTypeLimits,
    ActivityLevel,            !- Name
    0,                        !- Lower Limit Value
    150,                      !- Upper Limit Value
    Continuous,               !- Numeric Type
    activitylevel;            !- Unit Type

ScheduleTypeLimits,
    Fractional,               !- Name
    0,                        !- Lower Limit Value
    1,                        !- Upper Limit Value
    Continuous;               !- Numeric Type

Schedule:Compact,
    Zone Control Type Sched,    !- Name
    Control Type,             !- Schedule Type Limits Name
    Through: 12/31,           !- Field 1
    For: AllDays,             !- Field 2
    Until: 24:00,             !- Field 3
    1;                        !- Field 4

Schedule:Compact,
    Heating Setpoints,        !- Name
    Temperature,              !- Schedule Type Limits Name
    Through: 12/31,           !- Field 1
    For: AllDays,             !- Field 2
    Until: 24:00,             !- Field 3
    20.;                      !- Field 4

MATERIAL,
    gypsumplaster_UNI10456,    !- Name
    MediumSmooth,             !- Roughness
    0.015,                    !- Thickness
    0.8,                      !- Conductivity
    1600,                     !- Density
    1000,                     !- Specific Heat
    0.9,                      !- Thermal Absorptance
    0.7,                      !- Solar Absorptance
    0.7;                      !- Visible Absorptance

MATERIAL,
    internal_brickwork_UNI10351,    !- Name
    Rough,                    !- Roughness
    0.12,                     !- Thickness
    0.5,                      !- Conductivity
    1400,                     !- Density
    1000,                     !- Specific Heat
    0.9,                      !- Thermal Absorptance
    0.7,                      !- Solar Absorptance
    0.7;                      !- Visible Absorptance

MATERIAL,
    Brick blocks,             !- Name
    MediumRough,              !- Roughness
    0.3,                      !- Thickness
    0.3371,                   !- Conductivity
    1000,                     !- Density
    1000,                     !- Specific Heat
    0.9,                      !- Thermal Absorptance
    0.7,                      !- Solar Absorptance
    0.7;                      !- Visible Absorptance

MATERIAL,
    Cement mortar (2cm),      !- Name
    MediumSmooth,             !- Roughness
    0.02,                     !- Thickness
    1.4,                      !- Conductivity
    2000,                     !- Density
    670,                      !- Specific Heat
    0.9,                      !- Thermal Absorptance
    0.7,                      !- Solar Absorptance
    0.7;                      !- Visible Absorptance

MATERIAL,
    External plaster,         !- Name
    MediumSmooth,             !- Roughness
    0.02,                     !- Thickness
    0.9,                      !- Conductivity
    1800,                     !- Density
    1000,                     !- Specific Heat
    0.9,                      !- Thermal Absorptance
    0.7,                      !- Solar Absorptance
    0.7;                      !- Visible Absorptance

MATERIAL,
    Hollowcore slab,          !- Name
    MediumRough,              !- Roughness
    0.16,                     !- Thickness
    0.64,                     !- Conductivity
    600,                      !- Density
    1000,                     !- Specific Heat
    0.9,                      !- Thermal Absorptance
    0.7,                      !- Solar Absorptance
    0.7;                      !- Visible Absorptance

MATERIAL,
    Indoor flooring (stoneware),    !- Name
    MediumSmooth,             !- Roughness
    0.015,                    !- Thickness
    1.47,                     !- Conductivity
    1700,                     !- Density
    1000,                     !- Specific Heat
    0.9,                      !- Thermal Absorptance
    0.7,                      !- Solar Absorptance
    0.7;                      !- Visible Absorptance

MATERIAL,
    Internal plaster,         !- Name
    MediumSmooth,             !- Roughness
    0.02,                     !- Thickness
    0.7,                      !- Conductivity
    1400,                     !- Density
    1000,                     !- Specific Heat
    0.9,                      !- Thermal Absorptance
    0.7,                      !- Solar Absorptance
    0.7;                      !- Visible Absorptance

MATERIAL,
    Roof tiles,               !- Name
    MediumSmooth,             !- Roughness
    0.02,                     !- Thickness
    0.99,                     !- Conductivity
    2000,                     !- Density
    840,                      !- Specific Heat
    0.9,                      !- Thermal Absorptance
    0.7,                      !- Solar Absorptance
    0.7;                      !- Visible Absorptance

MATERIAL,
    Wood planking,            !- Name
    MediumSmooth,             !- Roughness
    0.03,                     !- Thickness
    0.15,                     !- Conductivity
    550,                      !- Density
    1600,                     !- Specific Heat
    0.9,                      !- Thermal Absorptance
    0.7,                      !- Solar Absorptance
    0.7;                      !- Visible Absorptance

MATERIAL:AIRGAP,
    airgap_4cm_UNI6946,       !- Name
    0.16;                     !- Thermal Resistance

WindowMaterial:SimpleGlazingSystem,
    window_simple,            !- Name
    2.1,                      !- UFactor
    0.7;                      !- Solar Heat Gain Coefficient

WindowMaterial:Shade,
    shade,                    !- Name
    0.35,                     !- Solar Transmittance
    0.5,                      !- Solar Reflectance
    0.35,                     !- Visible Transmittance
    0.5,                      !- Visible Reflectance
    0.9,                      !- Infrared Hemispherical Emissivity
    0.05,                     !- Infrared Transmittance
    0.005,                    !- Thickness
    0.1,                      !- Conductivity
    0.05,                     !- Shade to Glass Distance
    0,                        !- Top Opening Multiplier
    0,                        !- Bottom Opening Multiplier
    0,                        !- LeftSide Opening Multiplier
    0,                        !- RightSide Opening Multiplier
    0;                        !- Airflow Permeability

Construction,
    window_simple,            !- Name
    window_simple;            !- Outside Layer

CONSTRUCTION,
    floor_ground,             !- Name
    External plaster,         !- Outside Layer
    Hollowcore slab,          !- Layer 2
    Cement mortar (2cm),      !- Layer 3
    Indoor flooring (stoneware);    !- Layer 4

CONSTRUCTION,
    roof_external,            !- Name
    Roof tiles,               !- Outside Layer
    airgap_4cm_UNI6946,       !- Layer 2
    Wood planking;            !- Layer 3

CONSTRUCTION,
    wall_external,            !- Name
    External plaster,         !- Outside Layer
    Brick blocks,             !- Layer 2
    Internal plaster;         !- Layer 3

CONSTRUCTION,
    wall_internal,            !- Name
    gypsumplaster_UNI10456,    !- Outside Layer
    internal_brickwork_UNI10351,    !- Layer 2
    gypsumplaster_UNI10456;    !- Layer 3

GlobalGeometryRules,
    UpperLeftCorner,          !- Starting Vertex Position
    Counterclockwise,         !- Vertex Entry Direction
    Relative,                 !- Coordinate System
    Relative,                 !- Daylighting Reference Point Coordinate System
    Relative;                 !- Rectangular Surface Coordinate System

Zone,
    Zn001,                    !- Name
    0,                        !- Direction of Relative North
    0,                        !- X Origin
    0,                        !- Y Origin
    0,                        !- Z Origin
    ,                         !- Type
    ,                         !- Multiplier
    autocalculate,            !- Ceiling Height
    autocalculate;            !- Volume

BUILDINGSURFACE:DETAILED,
    floor,                    !- Name
    Floor,                    !- Surface Type
    floor_ground,             !- Construction Name
    Zn001,                    !- Zone Name
    ,                         !- Space Name
    Ground,                   !- Outside Boundary Condition
    ,                         !- Outside Boundary Condition Object
    NoSun,                    !- Sun Exposure
    NoWind,                   !- Wind Exposure
    ,                         !- View Factor to Ground
    14,                       !- Number of Vertices
    390877.6018700,           !- Vertex 1 Xcoordinate
    5032343.9876458,          !- Vertex 1 Ycoordinate
    0,                        !- Vertex 1 Zcoordinate
    390870.0736929,           !- Vertex 2 Xcoordinate
    5032339.3841914,          !- Vertex 2 Ycoordinate
    0,                        !- Vertex 2 Zcoordinate
    390871.5387619,           !- Vertex 3 Xcoordinate
    5032338.1474634,          !- Vertex 3 Ycoordinate
    0,                        !- Vertex 3 Zcoordinate
    390867.5146050,           !- Vertex 4 Xcoordinate
    5032336.6392665,          !- Vertex 4 Ycoordinate
    0,                        !- Vertex 4 Zcoordinate
    390856.7666500,           !- Vertex 5 Xcoordinate
    5032318.7229026,          !- Vertex 5 Ycoordinate
    0,                        !- Vertex 5 Zcoordinate
    390853.4702476,           !- Vertex 6 Xcoordinate
    5032321.2805127,          !- Vertex 6 Ycoordinate
    0,                        !- Vertex 6 Zcoordinate
    390849.7799644,           !- Vertex 7 Xcoordinate
    5032324.1338960,          !- Vertex 7 Ycoordinate
    0,                        !- Vertex 7 Zcoordinate
    390852.3287715,           !- Vertex 8 Xcoordinate
    5032328.9904408,          !- Vertex 8 Ycoordinate
    0,                        !- Vertex 8 Zcoordinate
    390854.4085030,           !- Vertex 9 Xcoordinate
    5032332.9660967,          !- Vertex 9 Ycoordinate
    0,                        !- Vertex 9 Zcoordinate
    390851.8235040,           !- Vertex 10 Xcoordinate
    5032334.5889917,          !- Vertex 10 Ycoordinate
    0,                        !- Vertex 10 Zcoordinate
    390859.5935501,           !- Vertex 11 Xcoordinate
    5032347.2672948,          !- Vertex 11 Ycoordinate
    0,                        !- Vertex 11 Zcoordinate
    390860.9616726,           !- Vertex 12 Xcoordinate
    5032345.8544405,          !- Vertex 12 Ycoordinate
    0,                        !- Vertex 12 Zcoordinate
    390869.3875854,           !- Vertex 13 Xcoordinate
    5032353.4983484,          !- Vertex 13 Ycoordinate
    0,                        !- Vertex 13 Zcoordinate
    390875.9158442,           !- Vertex 14 Xcoordinate
    5032346.0172213,          !- Vertex 14 Ycoordinate
    0;                        !- Vertex 14 Zcoordinate

BUILDINGSURFACE:DETAILED,
    roof,                     !- Name
    Roof,                     !- Surface Type
    roof_external,            !- Construction Name
    Zn001,                    !- Zone Name
    ,                         !- Space Name
    Outdoors,                 !- Outside Boundary Condition
    ,                         !- Outside Boundary Condition Object
    SunExposed,               !- Sun Exposure
    WindExposed,              !- Wind Exposure
    ,                         !- View Factor to Ground
    14,                       !- Number of Vertices
    390875.9158442,           !- Vertex 1 Xcoordinate
    5032346.0172213,          !- Vertex 1 Ycoordinate
    4.0000000,                !- Vertex 1 Zcoordinate
    390869.3875854,           !- Vertex 2 Xcoordinate
    5032353.4983484,          !- Vertex 2 Ycoordinate
    4.0000000,                !- Vertex 2 Zcoordinate
    390860.9616726,           !- Vertex 3 Xcoordinate
    5032345.8544405,          !- Vertex 3 Ycoordinate
    4.0000000,                !- Vertex 3 Zcoordinate
    390859.5935501,           !- Vertex 4 Xcoordinate
    5032347.2672948,          !- Vertex 4 Ycoordinate
    4.0000000,                !- Vertex 4 Zcoordinate
    390851.8235040,           !- Vertex 5 Xcoordinate
    5032334.5889917,          !- Vertex 5 Ycoordinate
    4.0000000,                !- Vertex 5 Zcoordinate
    390854.4085030,           !- Vertex 6 Xcoordinate
    5032332.9660967,          !- Vertex 6 Ycoordinate
    4.0000000,                !- Vertex 6 Zcoordinate
    390852.3287715,           !- Vertex 7 Xcoordinate
    5032328.9904408,          !- Vertex 7 Ycoordinate
    4.0000000,                !- Vertex 7 Zcoordinate
    390849.7799644,           !- Vertex 8 Xcoordinate
    5032324.1338960,          !- Vertex 8 Ycoordinate
    4.0000000,                !- Vertex 8 Zcoordinate
    390853.4702476,           !- Vertex 9 Xcoordinate
    5032321.2805127,          !- Vertex 9 Ycoordinate
    4.0000000,                !- Vertex 9 Zcoordinate
    390856.7666500,           !- Vertex 10 Xcoordinate
    5032318.7229026,          !- Vertex 10 Ycoordinate
    4.0000000,                !- Vertex 10 Zcoordinate
    390867.5146050,           !- Vertex 11 Xcoordinate
    5032336.6392665,          !- Vertex 11 Ycoordinate
    4.0000000,                !- Vertex 11 Zcoordinate
    390871.5387619,           !- Vertex 12 Xcoordinate
    5032338.1474634,          !- Vertex 12 Ycoordinate
    4.0000000,                !- Vertex 12 Zcoordinate
    390870.0736929,           !- Vertex 13 Xcoordinate
    5032339.3841914,          !- Vertex 13 Ycoordinate
    4.0000000,                !- Vertex 13 Zcoordinate
    390877.6018700,           !- Vertex 14 Xcoordinate
    5032343.9876458,          !- Vertex 14 Ycoordinate
    4.0000000;                !- Vertex 14 Zcoordinate

BUILDINGSURFACE:DETAILED,
    wall0,                    !- Name
    Wall,                     !- Surface Type
    wall_external,            !- Construction Name
    Zn001,                    !- Zone Name
    ,                         !- Space Name
    Outdoors,                 !- Outside Boundary Condition
    ,                         !- Outside Boundary Condition Object
    SunExposed,               !- Sun Exposure
    WindExposed,              !- Wind Exposure
    ,                         !- View Factor to Ground
    4,                        !- Number of Vertices
    390877.6018700,           !- Vertex 1 Xcoordinate
    5032343.9876458,          !- Vertex 1 Ycoordinate
    4.0000000,                !- Vertex 1 Zcoordinate
    390870.0736929,           !- Vertex 2 Xcoordinate
    5032339.3841914,          !- Vertex 2 Ycoordinate
    4.0000000,                !- Vertex 2 Zcoordinate
    390870.0736929,           !- Vertex 3 Xcoordinate
    5032339.3841914,          !- Vertex 3 Ycoordinate
    0.0,                      !- Vertex 3 Zcoordinate
    390877.6018700,           !- Vertex 4 Xcoordinate
    5032343.9876458,          !- Vertex 4 Ycoordinate
    0.0;                      !- Vertex 4 Zcoordinate

BUILDINGSURFACE:DETAILED,
    wall1,                    !- Name
    Wall,                     !- Surface Type
    wall_external,            !- Construction Name
    Zn001,                    !- Zone Name
    ,                         !- Space Name
    Outdoors,                 !- Outside Boundary Condition
    ,                         !- Outside Boundary Condition Object
    SunExposed,               !- Sun Exposure
    WindExposed,              !- Wind Exposure
    ,                         !- View Factor to Ground
    4,                        !- Number of Vertices
    390870.0736929,           !- Vertex 1 Xcoordinate
    5032339.3841914,          !- Vertex 1 Ycoordinate
    4.0000000,                !- Vertex 1 Zcoordinate
    390871.5387619,           !- Vertex 2 Xcoordinate
    5032338.1474634,          !- Vertex 2 Ycoordinate
    4.0000000,                !- Vertex 2 Zcoordinate
    390871.5387619,           !- Vertex 3 Xcoordinate
    5032338.1474634,          !- Vertex 3 Ycoordinate
    0.0,                      !- Vertex 3 Zcoordinate
    390870.0736929,           !- Vertex 4 Xcoordinate
    5032339.3841914,          !- Vertex 4 Ycoordinate
    0.0;                      !- Vertex 4 Zcoordinate

BUILDINGSURFACE:DETAILED,
    wall2,                    !- Name
    Wall,                     !- Surface Type
    wall_external,            !- Construction Name
    Zn001,                    !- Zone Name
    ,                         !- Space Name
    Outdoors,                 !- Outside Boundary Condition
    ,                         !- Outside Boundary Condition Object
    SunExposed,               !- Sun Exposure
    WindExposed,              !- Wind Exposure
    ,                         !- View Factor to Ground
    4,                        !- Number of Vertices
    390871.5387619,           !- Vertex 1 Xcoordinate
    5032338.1474634,          !- Vertex 1 Ycoordinate
    4.0000000,                !- Vertex 1 Zcoordinate
    390867.5146050,           !- Vertex 2 Xcoordinate
    5032336.6392665,          !- Vertex 2 Ycoordinate
    4.0000000,                !- Vertex 2 Zcoordinate
    390867.5146050,           !- Vertex 3 Xcoordinate
    5032336.6392665,          !- Vertex 3 Ycoordinate
    0.0,                      !- Vertex 3 Zcoordinate
    390871.5387619,           !- Vertex 4 Xcoordinate
    5032338.1474634,          !- Vertex 4 Ycoordinate
    0.0;                      !- Vertex 4 Zcoordinate

BUILDINGSURFACE:DETAILED,
    wall3,                    !- Name
    Wall,                     !- Surface Type
    wall_external,            !- Construction Name
    Zn001,                    !- Zone Name
    ,                         !- Space Name
    Outdoors,                 !- Outside Boundary Condition
    ,                         !- Outside Boundary Condition Object
    SunExposed,               !- Sun Exposure
    WindExposed,              !- Wind Exposure
    ,                         !- View Factor to Ground
    4,                        !- Number of Vertices
    390867.5146050,           !- Vertex 1 Xcoordinate
    5032336.6392665,          !- Vertex 1 Ycoordinate
    4.0000000,                !- Vertex 1 Zcoordinate
    390856.7666500,           !- Vertex 2 Xcoordinate
    5032318.7229026,          !- Vertex 2 Ycoordinate
    4.0000000,                !- Vertex 2 Zcoordinate
    390856.7666500,           !- Vertex 3 Xcoordinate
    5032318.7229026,          !- Vertex 3 Ycoordinate
    0.0,                      !- Vertex 3 Zcoordinate
    390867.5146050,           !- Vertex 4 Xcoordinate
    5032336.6392665,          !- Vertex 4 Ycoordinate
    0.0;                      !- Vertex 4 Zcoordinate

BUILDINGSURFACE:DETAILED,
    wall4,                    !- Name
    Wall,                     !- Surface Type
    wall_external,            !- Construction Name
    Zn001,                    !- Zone Name
    ,                         !- Space Name
    Outdoors,                 !- Outside Boundary Condition
    ,                         !- Outside Boundary Condition Object
    SunExposed,               !- Sun Exposure
    WindExposed,              !- Wind Exposure
    ,                         !- View Factor to Ground
    4,                        !- Number of Vertices
    390856.7666500,           !- Vertex 1 Xcoordinate
    5032318.7229026,          !- Vertex 1 Ycoordinate
    4.0000000,                !- Vertex 1 Zcoordinate
    390853.4702476,           !- Vertex 2 Xcoordinate
    5032321.2805127,          !- Vertex 2 Ycoordinate
    4.0000000,                !- Vertex 2 Zcoordinate
    390853.4702476,           !- Vertex 3 Xcoordinate
    5032321.2805127,          !- Vertex 3 Ycoordinate
    0.0,                      !- Vertex 3 Zcoordinate
    390856.7666500,           !- Vertex 4 Xcoordinate
    5032318.7229026,          !- Vertex 4 Ycoordinate
    0.0;                      !- Vertex 4 Zcoordinate

BUILDINGSURFACE:DETAILED,
    wall5,                    !- Name
    Wall,                     !- Surface Type
    wall_external,            !- Construction Name
    Zn001,                    !- Zone Name
    ,                         !- Space Name
    Outdoors,                 !- Outside Boundary Condition
    ,                         !- Outside Boundary Condition Object
    SunExposed,               !- Sun Exposure
    WindExposed,              !- Wind Exposure
    ,                         !- View Factor to Ground
    4,                        !- Number of Vertices
    390853.4702476,           !- Vertex 1 Xcoordinate
    5032321.2805127,          !- Vertex 1 Ycoordinate
    4.0000000,                !- Vertex 1 Zcoordinate
    390849.7799644,           !- Vertex 2 Xcoordinate
    5032324.1338960,          !- Vertex 2 Ycoordinate
    4.0000000,                !- Vertex 2 Zcoordinate
    390849.7799644,           !- Vertex 3 Xcoordinate
    5032324.1338960,          !- Vertex 3 Ycoordinate
    0.0,                      !- Vertex 3 Zcoordinate
    390853.4702476,           !- Vertex 4 Xcoordinate
    5032321.2805127,          !- Vertex 4 Ycoordinate
    0.0;                      !- Vertex 4 Zcoordinate

BUILDINGSURFACE:DETAILED,
    wall6,                    !- Name
    Wall,                     !- Surface Type
    wall_external,            !- Construction Name
    Zn001,                    !- Zone Name
    ,                         !- Space Name
    Outdoors,                 !- Outside Boundary Condition
    ,                         !- Outside Boundary Condition Object
    SunExposed,               !- Sun Exposure
    WindExposed,              !- Wind Exposure
    ,                         !- View Factor to Ground
    4,                        !- Number of Vertices
    390849.7799644,           !- Vertex 1 Xcoordinate
    5032324.1338960,          !- Vertex 1 Ycoordinate
    4.0000000,                !- Vertex 1 Zcoordinate
    390852.3287715,           !- Vertex 2 Xcoordinate
    5032328.9904408,          !- Vertex 2 Ycoordinate
    4.0000000,                !- Vertex 2 Zcoordinate
    390852.3287715,           !- Vertex 3 Xcoordinate
    5032328.9904408,          !- Vertex 3 Ycoordinate
    0.0,                      !- Vertex 3 Zcoordinate
    390849.7799644,           !- Vertex 4 Xcoordinate
    5032324.1338960,          !- Vertex 4 Ycoordinate
    0.0;                      !- Vertex 4 Zcoordinate

BUILDINGSURFACE:DETAILED,
    wall7,                    !- Name
    Wall,                     !- Surface Type
    wall_external,            !- Construction Name
    Zn001,                    !- Zone Name
    ,                         !- Space Name
    Outdoors,                 !- Outside Boundary Condition
    ,                         !- Outside Boundary Condition Object
    SunExposed,               !- Sun Exposure
    WindExposed,              !- Wind Exposure
    ,                         !- View Factor to Ground
    4,                        !- Number of Vertices
    390852.3287715,           !- Vertex 1 Xcoordinate
    5032328.9904408,          !- Vertex 1 Ycoordinate
    4.0000000,                !- Vertex 1 Zcoordinate
    390854.4085030,           !- Vertex 2 Xcoordinate
    5032332.9660967,          !- Vertex 2 Ycoordinate
    4.0000000,                !- Vertex 2 Zcoordinate
    390854.4085030,           !- Vertex 3 Xcoordinate
    5032332.9660967,          !- Vertex 3 Ycoordinate
    0.0,                      !- Vertex 3 Zcoordinate
    390852.3287715,           !- Vertex 4 Xcoordinate
    5032328.9904408,          !- Vertex 4 Ycoordinate
    0.0;                      !- Vertex 4 Zcoordinate

BUILDINGSURFACE:DETAILED,
    wall8,                    !- Name
    Wall,                     !- Surface Type
    wall_external,            !- Construction Name
    Zn001,                    !- Zone Name
    ,                         !- Space Name
    Outdoors,                 !- Outside Boundary Condition
    ,                         !- Outside Boundary Condition Object
    SunExposed,               !- Sun Exposure
    WindExposed,              !- Wind Exposure
    ,                         !- View Factor to Ground
    4,                        !- Number of Vertices
    390854.4085030,           !- Vertex 1 Xcoordinate
    5032332.9660967,          !- Vertex 1 Ycoordinate
    4.0000000,                !- Vertex 1 Zcoordinate
    390851.8235040,           !- Vertex 2 Xcoordinate
    5032334.5889917,          !- Vertex 2 Ycoordinate
    4.0000000,                !- Vertex 2 Zcoordinate
    390851.8235040,           !- Vertex 3 Xcoordinate
    5032334.5889917,          !- Vertex 3 Ycoordinate
    0.0,                      !- Vertex 3 Zcoordinate
    390854.4085030,           !- Vertex 4 Xcoordinate
    5032332.9660967,          !- Vertex 4 Ycoordinate
    0.0;                      !- Vertex 4 Zcoordinate

BUILDINGSURFACE:DETAILED,
    wall9,                    !- Name
    Wall,                     !- Surface Type
    wall_external,            !- Construction Name
    Zn001,                    !- Zone Name
    ,                         !- Space Name
    Outdoors,                 !- Outside Boundary Condition
    ,                         !- Outside Boundary Condition Object
    SunExposed,               !- Sun Exposure
    WindExposed,              !- Wind Exposure
    ,                         !- View Factor to Ground