!-Generator IDFEditor 1.50
!-Option OriginalOrderTop UseSpecialFormat

!-NOTE: All comments with '!-' are ignored by the IDFEditor and are generated automatically.
!-      Use '!' comments if they need to be retained when using the IDFEditor.

ExternalInterface:FunctionalMockupUnitExport:From:Variable,
    ZONE ONE,                !- Output:Variable Index Key Name
    Zone Air Relative Humidity,  !- Output:Variable Name
    RHRoom;                  !- FMU Variable Name

Output:Variable,*,Zone Air Relative Humidity,Timestep;

Window,
    window1,                 !- Name
    DoubleClear,             !- Construction Name
    Zn001:Wall001,           !- Building Surface Name
    ,                        !- Frame and Divider Name
    2,                       !- Multiplier
    3.5,                     !- Starting X Coordinate {m}
    0.5,                     !- Starting Z Coordinate {m}
    5,                       !- Length {m}
    2;                       !- Height {m}

Window,
    window2,                 !- Name
    DoubleClear,             !- Construction Name
    Zn001:Wall002,           !- Building Surface Name
    ,                        !- Frame and Divider Name
    2,                       !- Multiplier
    3.5,                     !- Starting X Coordinate {m}
    0.5,                     !- Starting Z Coordinate {m}
    3,                       !- Length {m}
    2;                       !- Height {m}

Construction,
    Heavy Partitions,        !- Name
    G01a 19mm gypsum board,  !- Outside Layer
    M05 200mm concrete block,!- Layer 2
    G01a 19mm gypsum board;  !- Layer 3

Construction,
    Medium Partitions,       !- Name
    G01a 19mm gypsum board,  !- Outside Layer
    F04 Wall air space resistance,  !- Layer 2
    G01a 19mm gypsum board;  !- Layer 3

Material,
    F06 EIFS finish,         !- Name
    Smooth,                  !- Roughness
    0.0095,                  !- Thickness {m}
    0.72,                    !- Conductivity {W/m-K}
    1856,                    !- Density {kg/m3}
    840;                     !- Specific Heat {J/kg-K}

Material,
    F07 25mm stucco,         !- Name
    Smooth,                  !- Roughness
    0.0254,                  !- Thickness {m}
    0.72,                    !- Conductivity {W/m-K}
    1856,                    !- Density {kg/m3}
    840;                     !- Specific Heat {J/kg-K}

Material,
    F08 Metal surface,       !- Name
    Smooth,                  !- Roughness
    0.0008,                  !- Thickness {m}
    45.28,                   !- Conductivity {W/m-K}
    7824,                    !- Density {kg/m3}
    500;                     !- Specific Heat {J/kg-K}

Material,
    F09 Opaque spandrel glass,  !- Name
    Smooth,                  !- Roughness
    0.0064,                  !- Thickness {m}
    0.99,                    !- Conductivity {W/m-K}
    2528,                    !- Density {kg/m3}
    880;                     !- Specific Heat {J/kg-K}

Material,
    F10 25mm stone,          !- Name
    MediumRough,             !- Roughness
    0.0254,                  !- Thickness {m}
    3.17,                    !- Conductivity {W/m-K}
    2560,                    !- Density {kg/m3}
    790;                     !- Specific Heat {J/kg-K}

Material,
    F11 Wood siding,         !- Name
    MediumSmooth,            !- Roughness
    0.0127,                  !- Thickness {m}
    0.09,                    !- Conductivity {W/m-K}
    592,                     !- Density {kg/m3}
    1170;                    !- Specific Heat {J/kg-K}

Material,
    F12 Asphalt shingles,    !- Name
    VeryRough,               !- Roughness
    0.0032,                  !- Thickness {m}
    0.04,                    !- Conductivity {W/m-K}
    1120,                    !- Density {kg/m3}
    1260;                    !- Specific Heat {J/kg-K}

Material,
    F13 Built-up roofing,    !- Name
    Rough,                   !- Roughness
    0.0095,                  !- Thickness {m}
    0.16,                    !- Conductivity {W/m-K}
    1120,                    !- Density {kg/m3}
    1460;                    !- Specific Heat {J/kg-K}

Material,
    F14 Slate or tile,       !- Name
    VeryRough,               !- Roughness
    0.0127,                  !- Thickness {m}
    1.59,                    !- Conductivity {W/m-K}
    1920,                    !- Density {kg/m3}
    1260;                    !- Specific Heat {J/kg-K}

Material,
    F15 Wood shingles,       !- Name
    VeryRough,               !- Roughness
    0.0064,                  !- Thickness {m}
    0.04,                    !- Conductivity {W/m-K}
    592,                     !- Density {kg/m3}
    1300;                    !- Specific Heat {J/kg-K}

Material,
    F16 Acoustic tile,       !- Name
    MediumSmooth,            !- Roughness
    0.0191,                  !- Thickness {m}
    0.06,                    !- Conductivity {W/m-K}
    368,                     !- Density {kg/m3}
    590;                     !- Specific Heat {J/kg-K}

Material,
    F17 Carpet,              !- Name
    MediumRough,             !- Roughness
    0.0127,                  !- Thickness {m}
    0.06,                    !- Conductivity {W/m-K}
    288,                     !- Density {kg/m3}
    1380;                    !- Specific Heat {J/kg-K}

Material,
    F18 Terrazzo,            !- Name
    Rough,                   !- Roughness
    0.0254,                  !- Thickness {m}
    1.8,                     !- Conductivity {W/m-K}
    2560,                    !- Density {kg/m3}
    790;                     !- Specific Heat {J/kg-K}

Material,
    G01 16mm gypsum board,   !- Name
    MediumSmooth,            !- Roughness
    0.0159,                  !- Thickness {m}
    0.16,                    !- Conductivity {W/m-K}
    800,                     !- Density {kg/m3}
    1090;                    !- Specific Heat {J/kg-K}

Material,
    G01a 19mm gypsum board,  !- Name
    MediumSmooth,            !- Roughness
    0.019,                   !- Thickness {m}
    0.16,                    !- Conductivity {W/m-K}
    800,                     !- Density {kg/m3}
    1090;                    !- Specific Heat {J/kg-K}

Material,
    G02 16mm plywood,        !- Name
    Smooth,                  !- Roughness
    0.0159,                  !- Thickness {m}
    0.12,                    !- Conductivity {W/m-K}
    544,                     !- Density {kg/m3}
    1210;                    !- Specific Heat {J/kg-K}

Material,
    G03 13mm fiberboard sheathing,  !- Name
    Smooth,                  !- Roughness
    0.0127,                  !- Thickness {m}
    0.07,                    !- Conductivity {W/m-K}
    400,                     !- Density {kg/m3}
    1300;                    !- Specific Heat {J/kg-K}

Material,
    G04 13mm wood,           !- Name
    MediumSmooth,            !- Roughness
    0.0127,                  !- Thickness {m}
    0.15,                    !- Conductivity {W/m-K}
    608,                     !- Density {kg/m3}
    1630;                    !- Specific Heat {J/kg-K}

Material,
    G05 25mm wood,           !- Name
    MediumSmooth,            !- Roughness
    0.0254,                  !- Thickness {m}
    0.15,                    !- Conductivity {W/m-K}
    608,                     !- Density {kg/m3}
    1630;                    !- Specific Heat {J/kg-K}

Material,
    G06 50mm wood,           !- Name
    MediumSmooth,            !- Roughness
    0.0508,                  !- Thickness {m}
    0.15,                    !- Conductivity {W/m-K}
    608,                     !- Density {kg/m3}
    1630;                    !- Specific Heat {J/kg-K}

Material,
    G07 100mm wood,          !- Name
    MediumSmooth,            !- Roughness
    0.1016,                  !- Thickness {m}
    0.15,                    !- Conductivity {W/m-K}
    608,                     !- Density {kg/m3}
    1630;                    !- Specific Heat {J/kg-K}

Material,
    I01 25mm insulation board,  !- Name
    MediumRough,             !- Roughness
    0.0254,                  !- Thickness {m}
    0.03,                    !- Conductivity {W/m-K}
    43,                      !- Density {kg/m3}
    1210;                    !- Specific Heat {J/kg-K}

Material,
    I02 50mm insulation board,  !- Name
    MediumRough,             !- Roughness
    0.0508,                  !- Thickness {m}
    0.03,                    !- Conductivity {W/m-K}
    43,                      !- Density {kg/m3}
    1210;                    !- Specific Heat {J/kg-K}

Material,
    I03 75mm insulation board,  !- Name
    MediumRough,             !- Roughness
    0.0762,                  !- Thickness {m}
    0.03,                    !- Conductivity {W/m-K}
    43,                      !- Density {kg/m3}
    1210;                    !- Specific Heat {J/kg-K}

Material,
    I04 89mm batt insulation,!- Name
    VeryRough,               !- Roughness
    0.0894,                  !- Thickness {m}
    0.05,                    !- Conductivity {W/m-K}
    19,                      !- Density {kg/m3}
    960;                     !- Specific Heat {J/kg-K}

Material,
    I05 154mm batt insulation,  !- Name
    VeryRough,               !- Roughness
    0.1544,                  !- Thickness {m}
    0.05,                    !- Conductivity {W/m-K}
    19,                      !- Density {kg/m3}
    960;                     !- Specific Heat {J/kg-K}

Material,
    I06 244mm batt insulation,  !- Name
    VeryRough,               !- Roughness
    0.2438,                  !- Thickness {m}
    0.05,                    !- Conductivity {W/m-K}
    19,                      !- Density {kg/m3}
    960;                     !- Specific Heat {J/kg-K}

Material,
    M01 100mm brick,         !- Name
    MediumRough,             !- Roughness
    0.1016,                  !- Thickness {m}
    0.89,                    !- Conductivity {W/m-K}
    1920,                    !- Density {kg/m3}
    790;                     !- Specific Heat {J/kg-K}

Material,
    M02 150mm lightweight concrete block,  !- Name
    MediumRough,             !- Roughness
    0.1524,                  !- Thickness {m}
    0.49,                    !- Conductivity {W/m-K}
    512,                     !- Density {kg/m3}
    880;                     !- Specific Heat {J/kg-K}

Material,
    M03 200mm lightweight concrete block,  !- Name
    MediumRough,             !- Roughness
    0.2032,                  !- Thickness {m}
    0.5,                     !- Conductivity {W/m-K}
    464,                     !- Density {kg/m3}
    880;                     !- Specific Heat {J/kg-K}

Material,
    M04 300mm lightweight concrete block,  !- Name
    MediumRough,             !- Roughness
    0.3048,                  !- Thickness {m}
    0.71,                    !- Conductivity {W/m-K}
    512,                     !- Density {kg/m3}
    880;                     !- Specific Heat {J/kg-K}

Material,
    M05 200mm concrete block,!- Name
    MediumRough,             !- Roughness
    0.2032,                  !- Thickness {m}
    1.11,                    !- Conductivity {W/m-K}
    800,                     !- Density {kg/m3}
    920;                     !- Specific Heat {J/kg-K}

Material,
    M06 300mm concrete block,!- Name
    MediumRough,             !- Roughness
    0.3048,                  !- Thickness {m}
    1.4,                     !- Conductivity {W/m-K}
    800,                     !- Density {kg/m3}
    920;                     !- Specific Heat {J/kg-K}

Material,
    M07 150mm lightweight concrete block (filled),  !- Name
    MediumRough,             !- Roughness
    0.1524,                  !- Thickness {m}
    0.29,                    !- Conductivity {W/m-K}
    512,                     !- Density {kg/m3}
    880;                     !- Specific Heat {J/kg-K}

Material,
    M08 200mm lightweight concrete block (filled),  !- Name
    MediumRough,             !- Roughness
    0.2032,                  !- Thickness {m}
    0.26,                    !- Conductivity {W/m-K}
    464,                     !- Density {kg/m3}
    880;                     !- Specific Heat {J/kg-K}

Material,
    M09 300mm lightweight concrete block (filled),  !- Name
    MediumRough,             !- Roughness
    0.3048,                  !- Thickness {m}
    0.29,                    !- Conductivity {W/m-K}
    512,                     !- Density {kg/m3}
    880;                     !- Specific Heat {J/kg-K}

Material,
    M10 200mm concrete block (filled),  !- Name
    MediumRough,             !- Roughness
    0.2032,                  !- Thickness {m}
    0.72,                    !- Conductivity {W/m-K}
    800,                     !- Density {kg/m3}
    920;                     !- Specific Heat {J/kg-K}

Material,
    M11 100mm lightweight concrete,  !- Name
    MediumRough,             !- Roughness
    0.1016,                  !- Thickness {m}
    0.53,                    !- Conductivity {W/m-K}
    1280,                    !- Density {kg/m3}
    840;                     !- Specific Heat {J/kg-K}

Material,
    M12 150mm lightweight concrete,  !- Name
    MediumRough,             !- Roughness
    0.1524,                  !- Thickness {m}
    0.53,                    !- Conductivity {W/m-K}
    1280,                    !- Density {kg/m3}
    840;                     !- Specific Heat {J/kg-K}

Material,
    M13 200mm lightweight concrete,  !- Name
    MediumRough,             !- Roughness
    0.2032,                  !- Thickness {m}
    0.53,                    !- Conductivity {W/m-K}
    1280,                    !- Density {kg/m3}
    840;                     !- Specific Heat {J/kg-K}

Material,
    M14a 100mm heavyweight concrete,  !- Name
    MediumRough,             !- Roughness
    0.1016,                  !- Thickness {m}
    1.95,                    !- Conductivity {W/m-K}
    2240,                    !- Density {kg/m3}
    900;                     !- Specific Heat {J/kg-K}

Material,
    M14 150mm heavyweight concrete,  !- Name
    MediumRough,             !- Roughness
    0.1524,                  !- Thickness {m}
    1.95,                    !- Conductivity {W/m-K}
    2240,                    !- Density {kg/m3}
    900;                     !- Specific Heat {J/kg-K}

Material,
    M15 200mm heavyweight concrete,  !- Name
    MediumRough,             !- Roughness
    0.2032,                  !- Thickness {m}
    1.95,                    !- Conductivity {W/m-K}
    2240,                    !- Density {kg/m3}
    900;                     !- Specific Heat {J/kg-K}

Material,
    M16 300mm heavyweight concrete,  !- Name
    MediumRough,             !- Roughness
    0.3048,                  !- Thickness {m}
    1.95,                    !- Conductivity {W/m-K}
    2240,                    !- Density {kg/m3}
    900;                     !- Specific Heat {J/kg-K}

Material,
    M17 50mm lightweight concrete roof ballast,  !- Name
    MediumRough,             !- Roughness
    0.0508,                  !- Thickness {m}
    0.19,                    !- Conductivity {W/m-K}
    640,                     !- Density {kg/m3}
    840;                     !- Specific Heat {J/kg-K}

Material,
    Asbestos-cement board - 3.2mm,  !- Name
    Smooth,                  !- Roughness
    0.0032,                  !- Thickness {m}
    0.58,                    !- Conductivity {W/m-K}
    1900,                    !- Density {kg/m3}
    1000;                    !- Specific Heat {J/kg-K}

Material,
    Asbestos-cement board - 6.4mm,  !- Name
    Smooth,                  !- Roughness
    0.0064,                  !- Thickness {m}
    0.58,                    !- Conductivity {W/m-K}
    1900,                    !- Density {kg/m3}
    1000;                    !- Specific Heat {J/kg-K}

Material,
    Gypsum or plaster board - 9.5mm,  !- Name
    MediumSmooth,            !- Roughness
    0.0095,                  !- Thickness {m}
    0.58,                    !- Conductivity {W/m-K}
    800,                     !- Density {kg/m3}
    1090;                    !- Specific Heat {J/kg-K}

Material,
    Gypsum or plaster board - 2.7mm,  !- Name
    MediumSmooth,            !- Roughness
    0.0027,                  !- Thickness {m}
    0.58,                    !- Conductivity {W/m-K}
    800,                     !- Density {kg/m3}
    1090;                    !- Specific Heat {J/kg-K}

Material,
    Gypsum or plaster board - 5.9mm,  !- Name
    MediumSmooth,            !- Roughness
    0.0059,                  !- Thickness {m}
    0.58,                    !- Conductivity {W/m-K}
    800,                     !- Density {kg/m3}
    1090;                    !- Specific Heat {J/kg-K}

Material,
    Plywood (Douglas Fir) - 6.4mm,  !- Name
    MediumSmooth,            !- Roughness
    0.0064,                  !- Thickness {m}
    0.12,                    !- Conductivity {W/m-K}
    540,                     !- Density {kg/m3}
    1210;                    !- Specific Heat {J/kg-K}

Material,
    Plywood (Douglas Fir) - 9.5mm,  !- Name
    Smooth,                  !- Roughness
    0.0095,                  !- Thickness {m}
    0.12,                    !- Conductivity {W/m-K}
    540,                     !- Density {kg/m3}
    1210;                    !- Specific Heat {J/kg-K}

Material,
    Plywood (Douglas Fir) - 12.7mm,  !- Name
    Smooth,                  !- Roughness
    0.0127,                  !- Thickness {m}
    0.12,                    !- Conductivity {W/m-K}
    540,                     !- Density {kg/m3}
    1210;                    !- Specific Heat {J/kg-K}

Material,
    Plywood (Douglas Fir) - 15.9mm,  !- Name
    Smooth,                  !- Roughness
    0.0159,                  !- Thickness {m}
    0.12,                    !- Conductivity {W/m-K}
    540,                     !- Density {kg/m3}
    1210;                    !- Specific Heat {J/kg-K}

Material,
    Plywood or wood panels - 19.0mm,  !- Name
    Smooth,                  !- Roughness
    0.019,                   !- Thickness {m}
    0.12,                    !- Conductivity {W/m-K}
    540,                     !- Density {kg/m3}
    1210;                    !- Specific Heat {J/kg-K}

Material,
    Sheathing - regular density - 12.7mm,  !- Name
    Smooth,                  !- Roughness
    0.0127,                  !- Thickness {m}
    0.055,                   !- Conductivity {W/m-K}
    290,                     !- Density {kg/m3}
    1300;                    !- Specific Heat {J/kg-K}

Material,
    Sheathing - regular density - 19.8mm,  !- Name
    Smooth,                  !- Roughness
    0.0198,                  !- Thickness {m}
    0.055,                   !- Conductivity {W/m-K}
    290,                     !- Density {kg/m3}
    1300;                    !- Specific Heat {J/kg-K}

Material,
    Sheathing intermediate density - 12.7mm,  !- Name
    Smooth,                  !- Roughness
    0.0127,                  !- Thickness {m}
    0.057,                   !- Conductivity {W/m-K}
    350,                     !- Density {kg/m3}
    1300;                    !- Specific Heat {J/kg-K}

Material,
    Nail-base sheathing - 12.7mm,  !- Name
    Smooth,                  !- Roughness
    0.0127,                  !- Thickness {m}
    0.057,                   !- Conductivity {W/m-K}
    400,                     !- Density {kg/m3}
    1300;                    !- Specific Heat {J/kg-K}

Material,
    Shingle backer - 9.5mm,  !- Name
    Smooth,                  !- Roughness
    0.0095,                  !- Thickness {m}
    0.063,                   !- Conductivity {W/m-K}
    290,                     !- Density {kg/m3}
    1300;                    !- Specific Heat {J/kg-K}

Material,
    Shingle backer - 7.9mm,  !- Name
    Smooth,                  !- Roughness
    0.0079,                  !- Thickness {m}
    0.063,                   !- Conductivity {W/m-K}
    290,                     !- Density {kg/m3}
    1300;                    !- Specific Heat {J/kg-K}

Material,
    Sound deadening board,   !- Name
    Smooth,                  !- Roughness
    0.0127,                  !- Thickness {m}
    0.063,                   !- Conductivity {W/m-K}
    240,                     !- Density {kg/m3}
    1260;                    !- Specific Heat {J/kg-K}

Material,
    Tile and lay-in panels - plain or acoustic - 12.7mm,  !- Name
    MediumSmooth,            !- Roughness
    0.0127,                  !- Thickness {m}
    0.057,                   !- Conductivity {W/m-K}
    290,                     !- Density {kg/m3}
    590;                     !- Specific Heat {J/kg-K}

Material,
    Tile and lay-in panels - plain or acoustic - 19mm,  !- Name
    MediumSmooth,            !- Roughness
    0.019,                   !- Thickness {m}
    0.057,                   !- Conductivity {W/m-K}
    290,                     !- Density {kg/m3}
    590;                     !- Specific Heat {J/kg-K}

Material,
    Laminated paperboard,    !- Name
    MediumSmooth,            !- Roughness
    0.0032,                  !- Thickness {m}
    0.072,                   !- Conductivity {W/m-K}
    480,                     !- Density {kg/m3}
    1380;                    !- Specific Heat {J/kg-K}

Material,
    Homogeneous board from repulped paper,  !- Name
    MediumSmooth,            !- Roughness
    0.0032,                  !- Thickness {m}
    0.072,                   !- Conductivity {W/m-K}
    480,                     !- Density {kg/m3}
    1170;                    !- Specific Heat {J/kg-K}

Material,
    Hardboard Medium density,!- Name
    Smooth,                  !- Roughness
    0.019,                   !- Thickness {m}
    0.105,                   !- Conductivity {W/m-K}
    800,                     !- Density {kg/m3}
    1300;                    !- Specific Heat {J/kg-K}

Material,
    Hardboard High density - service-tempered grade and service grade,  !- Name
    Smooth,                  !- Roughness
    0.019,                   !- Thickness {m}
    0.82,                    !- Conductivity {W/m-K}
    880,                     !- Density {kg/m3}
    1340;                    !- Specific Heat {J/kg-K}

Material,
    Hardboard High density - standard-tempered grade,  !- Name
    Smooth,                  !- Roughness
    0.019,                   !- Thickness {m}
    0.144,                   !- Conductivity {W/m-K}
    1010,                    !- Density {kg/m3}
    1340;                    !- Specific Heat {J/kg-K}

Material,
    Particleboard Low density,  !- Name
    MediumSmooth,            !- Roughness
    0.019,                   !- Thickness {m}
    0.102,                   !- Conductivity {W/m-K}
    590,                     !- Density {kg/m3}
    1300;                    !- Specific Heat {J/kg-K}

Material,
    Particleboard Medium density,  !- Name
    MediumSmooth,            !- Roughness
    0.019,                   !- Thickness {m}
    0.135,                   !- Conductivity {W/m-K}
    800,                     !- Density {kg/m3}
    1300;                    !- Specific Heat {J/kg-K}

Material,
    Particleboard High density,  !- Name
    MediumSmooth,            !- Roughness
    0.019,                   !- Thickness {m}
    0.17,                    !- Conductivity {W/m-K}
    1000,                    !- Density {kg/m3}
    1300;                    !- Specific Heat {J/kg-K}

Material,
    Particleboard Underlayment - 15.9mm,  !- Name
    MediumRough,             !- Roughness
    0.0159,                  !- Thickness {m}
    0.311,                   !- Conductivity {W/m-K}
    640,                     !- Density {kg/m3}
    1210;                    !- Specific Heat {J/kg-K}

Material,
    Waferboard,              !- Name
    MediumSmooth,            !- Roughness
    0.019,                   !- Thickness {m}
    0.091,                   !- Conductivity {W/m-K}
    590,                     !- Density {kg/m3}
    1300;                    !- Specific Heat {J/kg-K}

Material,
    Wood subfloor - 19mm,    !- Name
    MediumSmooth,            !- Roughness
    0.019,                   !- Thickness {m}
    0.115,                   !- Conductivity {W/m-K}
    800,                     !- Density {kg/m3}
    1380;                    !- Specific Heat {J/kg-K}

Material,
    Insulation: Cellular glass - 25mm,  !- Name
    MediumRough,             !- Roughness
    0.025,                   !- Thickness {m}
    0.05,                    !- Conductivity {W/m-K}
    136,                     !- Density {kg/m3}
    750;                     !- Specific Heat {J/kg-K}

Material,
    Insulation: Cellular glass - 50mm,  !- Name
    MediumRough,             !- Roughness
    0.05,                    !- Thickness {m}
    0.05,                    !- Conductivity {W/m-K}
    136,                     !- Density {kg/m3}
    750;                     !- Specific Heat {J/kg-K}

Material,
    Insulation: Cellular glass - 75mm,  !- Name
    MediumRough,             !- Roughness
    0.075,                   !- Thickness {m}
    0.05,                    !- Conductivity {W/m-K}
    136,                     !- Density {kg/m3}
    750;                     !- Specific Heat {J/kg-K}

Material,
    Insulation: Glass fiber - organic bonded - 25mm,  !- Name
    MediumRough,             !- Roughness
    0.025,                   !- Thickness {m}
    0.036,                   !- Conductivity {W/m-K}
    64,                      !- Density {kg/m3}
    960;                     !- Specific Heat {J/kg-K}

Material,
    Insulation: Glass fiber - organic bonded - 50mm,  !- Name
    MediumRough,             !- Roughness
    0.05,                    !- Thickness {m}
    0.036,                   !- Conductivity {W/m-K}
    140,                     !- Density {kg/m3}
    960;                     !- Specific Heat {J/kg-K}

Material,
    Insulation: Glass fiber - organic bonded - 75mm,  !- Name
    MediumRough,             !- Roughness
    0.075,                   !- Thickness {m}
    0.036,                   !- Conductivity {W/m-K}
    140,                     !- Density {kg/m3}
    960;                     !- Specific Heat {J/kg-K}

Material,
    Insulation: Expanded perlite - organic bonded - 25mm,  !- Name
    MediumSmooth,            !- Roughness
    0.025,                   !- Thickness {m}
    0.052,                   !- Conductivity {W/m-K}
    16,                      !- Density {kg/m3}
    1260;                    !- Specific Heat {J/kg-K}

Material,
    Insulation: Expanded rubber (rigid) - 25mm,  !- Name
    MediumRough,             !- Roughness
    0.025,                   !- Thickness {m}
    0.032,                   !- Conductivity {W/m-K}
    72,                      !- Density {kg/m3}
    1680;                    !- Specific Heat {J/kg-K}

Material,
    Insulation: Expanded polystyrene - extruded (smooth skin surface) (CFC-12 exp.),  !- Name
    MediumSmooth,            !- Roughness
    0.025,                   !- Thickness {m}
    0.029,                   !- Conductivity {W/m-K}
    29,                      !- Density {kg/m3}
    1210;                    !- Specific Heat {J/kg-K}

Material,
    Insulation: Expanded polystyrene - extruded (smooth skin surface) (HCFC-142b exp.),  !- Name
    MediumSmooth,            !- Roughness
    0.025,                   !- Thickness {m}
    0.029,                   !- Conductivity {W/m-K}
    29,                      !- Density {kg/m3}
    1210;                    !- Specific Heat {J/kg-K}

Material,
    Insulation: Expanded polystyrene - molded beads - 16kg/m3 density,  !- Name
    VeryRough,               !- Roughness
    0.025,                   !- Thickness {m}
    0.037,                   !- Conductivity {W/m-K}
    16,                      !- Density {kg/m3}
    1210;                    !- Specific Heat {J/kg-K}

Material,
    Insulation: Expanded polystyrene - molded beads - 20kg/m3 density,  !- Name
    VeryRough,               !- Roughness
    0.025,                   !- Thickness {m}
    0.036,                   !- Conductivity {W/m-K}
    20,                      !- Density {kg/m3}
    1210;                    !- Specific Heat {J/kg-K}

Material,
    Insulation: Expanded polystyrene - molded beads - 24kg/m3 density,  !- Name
    VeryRough,               !- Roughness
    0.025,                   !- Thickness {m}
    0.035,                   !- Conductivity {W/m-K}
    24,                      !- Density {kg/m3}
    1210;                    !- Specific Heat {J/kg-K}

Material,
    Insulation: Expanded polystyrene - molded beads - 28 k6/m3 density,  !- Name
    VeryRough,               !- Roughness
    0.025,                   !- Thickness {m}
    0.035,                   !- Conductivity {W/m-K}
    28,                      !- Density {kg/m3}
    1210;                    !- Specific Heat {J/kg-K}

Material,
    Insulation: Expanded polystyrene - molded beads - 32 kg/m3 density,  !- Name
    VeryRough,               !- Roughness
    0.025,                   !- Thickness {m}
    0.033,                   !- Conductivity {W/m-K}
    32,                      !- Density {kg/m3}
    1210;                    !- Specific Heat {J/kg-K}

Material,
    Insulation: Cellular polyurethane/polyisocyanuratei (CFC11 exp.) (unfaced),  !- Name
    Rough,                   !- Roughness
    0.025,                   !- Thickness {m}
    0.0245,                  !- Conductivity {W/m-K}
    24,                      !- Density {kg/m3}
    1590;                    !- Specific Heat {J/kg-K}

Material,
    Insulation: Cellular polyisocyanuratei (CFC-11 exp.) (gaspermeable facers),  !- Name
    Rough,                   !- Roughness
    0.025,                   !- Thickness {m}
    0.0245,                  !- Conductivity {W/m-K}
    32,                      !- Density {kg/m3}
    920;                     !- Specific Heat {J/kg-K}

Material,
    Insulation: Cellular polyisocyanuratej (CFC-11 exp.) (gasimpermeable facers),  !- Name
    Rough,                   !- Roughness
    0.025,                   !- Thickness {m}